/*--------------------------------*- C++ -*----------------------------------*\
| =========                 |                                                 |
| \\      /  F ield         | OpenFOAM: The Open Source CFD Toolbox           |
|  \\    /   O peration     | Version:  2.3.0                                 |
|   \\  /    A nd           | Web:      www.OpenFOAM.org                      |
|    \\/     M anipulation  |                                                 |
\*---------------------------------------------------------------------------*/
FoamFile
{
    version     2.0;
    format      ascii;
    class       polyBoundaryMesh;
    location    "constant/polyMesh";
    object      boundary;
}
// * * * * * * * * * * * * * * * * * * * * * * * * * * * * * * * * * * * * * //

4
(
    water
    {
        type            patch;
        nFaces          20;
        startFace       7780;
    }
    oil
    {
        type            patch;
        nFaces          20;
        startFace       7800;
    }
    outlet
    {
        type            patch;
        nFaces          400;
        startFace       7820;
    }
    frontAndBack
    {
        type            empty;
        inGroups        1(empty);
        nFaces          8000;
        startFace       8220;
    }
)

// ************************************************************************* //
